data_FeGaTe
_audit_creation_method           'pos2cif.pl'
_cell_length_a               23.97480066
_cell_length_b               23.9854245864518
_cell_length_c               20.22163904
_cell_angle_alpha            90
_cell_angle_beta             90
_cell_angle_gamma            120.012842868842
_symmetry_space_group_H-M        'P1'
_symmetry_Int_Tables_number      '1'
_symmetry_cell_setting           'triclinic'
loop_
_symmetry_equiv_pos_as_xyz
x,y,z

loop_
_atom_site_label
_atom_site_type_symbol
_atom_site_occupancy
_atom_site_fract_x
_atom_site_fract_y
_atom_site_fract_z
_atom_site_U_iso_or_equiv
Fe1  Fe  1.0000  0.02961  0.02829  0.55975  0.0000
Fe2  Fe  1.0000  0.02961  0.19496  0.55975  0.0000
Fe3  Fe  1.0000  0.02961  0.36162  0.55975  0.0000
Fe4  Fe  1.0000  0.02961  0.52829  0.55975  0.0000
Fe5  Fe  1.0000  0.02961  0.69496  0.55975  0.0000
Fe6  Fe  1.0000  0.02961  0.86162  0.55975  0.0000
Fe7  Fe  1.0000  0.19628  0.02829  0.55975  0.0000
Fe8  Fe  1.0000  0.19628  0.19496  0.55975  0.0000
Fe9  Fe  1.0000  0.19628  0.36162  0.55975  0.0000
Fe10  Fe  1.0000  0.19628  0.52829  0.55975  0.0000
Fe11  Fe  1.0000  0.19628  0.69496  0.55975  0.0000
Fe12  Fe  1.0000  0.19628  0.86162  0.55975  0.0000
Fe13  Fe  1.0000  0.36294  0.02829  0.55975  0.0000
Fe14  Fe  1.0000  0.36294  0.19496  0.55975  0.0000
Fe15  Fe  1.0000  0.36294  0.36162  0.55975  0.0000
Fe16  Fe  1.0000  0.36294  0.52829  0.55975  0.0000
Fe17  Fe  1.0000  0.36294  0.69496  0.55975  0.0000
Fe18  Fe  1.0000  0.36294  0.86162  0.55975  0.0000
Fe19  Fe  1.0000  0.52961  0.02829  0.55975  0.0000
Fe20  Fe  1.0000  0.52961  0.19496  0.55975  0.0000
Fe21  Fe  1.0000  0.52961  0.36162  0.55975  0.0000
Fe22  Fe  1.0000  0.52961  0.52829  0.55975  0.0000
Fe23  Fe  1.0000  0.52961  0.69496  0.55975  0.0000
Fe24  Fe  1.0000  0.52961  0.86162  0.55975  0.0000
Fe25  Fe  1.0000  0.69628  0.02829  0.55975  0.0000
Fe26  Fe  1.0000  0.69628  0.19496  0.55975  0.0000
Fe27  Fe  1.0000  0.69628  0.36162  0.55975  0.0000
Fe28  Fe  1.0000  0.69628  0.52829  0.55975  0.0000
Fe29  Fe  1.0000  0.69628  0.69496  0.55975  0.0000
Fe30  Fe  1.0000  0.69628  0.86162  0.55975  0.0000
Fe31  Fe  1.0000  0.86294  0.02829  0.55975  0.0000
Fe32  Fe  1.0000  0.86294  0.19496  0.55975  0.0000
Fe33  Fe  1.0000  0.86294  0.36162  0.55975  0.0000
Fe34  Fe  1.0000  0.86294  0.52829  0.55975  0.0000
Fe35  Fe  1.0000  0.86294  0.69496  0.55975  0.0000
Fe36  Fe  1.0000  0.86294  0.86162  0.55975  0.0000
Fe37  Fe  1.0000  0.02965  0.02831  0.44060  0.0000
Fe38  Fe  1.0000  0.02965  0.19498  0.44060  0.0000
Fe39  Fe  1.0000  0.02965  0.36164  0.44060  0.0000
Fe40  Fe  1.0000  0.02965  0.52831  0.44060  0.0000
Fe41  Fe  1.0000  0.02965  0.69498  0.44060  0.0000
Fe42  Fe  1.0000  0.02965  0.86164  0.44060  0.0000
Fe43  Fe  1.0000  0.19631  0.02831  0.44060  0.0000
Fe44  Fe  1.0000  0.19631  0.19498  0.44060  0.0000
Fe45  Fe  1.0000  0.19631  0.36164  0.44060  0.0000
Fe46  Fe  1.0000  0.19631  0.52831  0.44060  0.0000
Fe47  Fe  1.0000  0.19631  0.69498  0.44060  0.0000
Fe48  Fe  1.0000  0.19631  0.86164  0.44060  0.0000
Fe49  Fe  1.0000  0.36298  0.02831  0.44060  0.0000
Fe50  Fe  1.0000  0.36298  0.19498  0.44060  0.0000
Fe51  Fe  1.0000  0.36298  0.36164  0.44060  0.0000
Fe52  Fe  1.0000  0.36298  0.52831  0.44060  0.0000
Fe53  Fe  1.0000  0.36298  0.69498  0.44060  0.0000
Fe54  Fe  1.0000  0.36298  0.86164  0.44060  0.0000
Fe55  Fe  1.0000  0.52965  0.02831  0.44060  0.0000
Fe56  Fe  1.0000  0.52965  0.19498  0.44060  0.0000
Fe57  Fe  1.0000  0.52965  0.36164  0.44060  0.0000
Fe58  Fe  1.0000  0.52965  0.52831  0.44060  0.0000
Fe59  Fe  1.0000  0.52965  0.69498  0.44060  0.0000
Fe60  Fe  1.0000  0.52965  0.86164  0.44060  0.0000
Fe61  Fe  1.0000  0.69631  0.02831  0.44060  0.0000
Fe62  Fe  1.0000  0.69631  0.19498  0.44060  0.0000
Fe63  Fe  1.0000  0.69631  0.36164  0.44060  0.0000
Fe64  Fe  1.0000  0.69631  0.52831  0.44060  0.0000
Fe65  Fe  1.0000  0.69631  0.69498  0.44060  0.0000
Fe66  Fe  1.0000  0.69631  0.86164  0.44060  0.0000
Fe67  Fe  1.0000  0.86298  0.02831  0.44060  0.0000
Fe68  Fe  1.0000  0.86298  0.19498  0.44060  0.0000
Fe69  Fe  1.0000  0.86298  0.36164  0.44060  0.0000
Fe70  Fe  1.0000  0.86298  0.52831  0.44060  0.0000
Fe71  Fe  1.0000  0.86298  0.69498  0.44060  0.0000
Fe72  Fe  1.0000  0.86298  0.86164  0.44060  0.0000
Fe73  Fe  1.0000  0.14072  0.08413  0.50166  0.0000
Fe74  Fe  1.0000  0.14072  0.25080  0.50166  0.0000
Fe75  Fe  1.0000  0.14072  0.41747  0.50166  0.0000
Fe76  Fe  1.0000  0.14072  0.58413  0.50166  0.0000
Fe77  Fe  1.0000  0.14072  0.75080  0.50166  0.0000
Fe78  Fe  1.0000  0.14072  0.91747  0.50166  0.0000
Fe79  Fe  1.0000  0.30738  0.08413  0.50166  0.0000
Fe80  Fe  1.0000  0.30738  0.25080  0.50166  0.0000
Fe81  Fe  1.0000  0.30738  0.41747  0.50166  0.0000
Fe82  Fe  1.0000  0.30738  0.58413  0.50166  0.0000
Fe83  Fe  1.0000  0.30738  0.75080  0.50166  0.0000
Fe84  Fe  1.0000  0.30738  0.91747  0.50166  0.0000
Fe85  Fe  1.0000  0.47405  0.08413  0.50166  0.0000
Fe86  Fe  1.0000  0.47405  0.25080  0.50166  0.0000
Fe87  Fe  1.0000  0.47405  0.41747  0.50166  0.0000
Fe88  Fe  1.0000  0.47405  0.58413  0.50166  0.0000
Fe89  Fe  1.0000  0.47405  0.75080  0.50166  0.0000
Fe90  Fe  1.0000  0.47405  0.91747  0.50166  0.0000
Fe91  Fe  1.0000  0.64072  0.08413  0.50166  0.0000
Fe92  Fe  1.0000  0.64072  0.25080  0.50166  0.0000
Fe93  Fe  1.0000  0.64072  0.41747  0.50166  0.0000
Fe94  Fe  1.0000  0.64072  0.58413  0.50166  0.0000
Fe95  Fe  1.0000  0.64072  0.75080  0.50166  0.0000
Fe96  Fe  1.0000  0.64072  0.91747  0.50166  0.0000
Fe97  Fe  1.0000  0.80738  0.08413  0.50166  0.0000
Fe98  Fe  1.0000  0.80738  0.25080  0.50166  0.0000
Fe99  Fe  1.0000  0.80738  0.41747  0.50166  0.0000
Fe100  Fe  1.0000  0.80738  0.58413  0.50166  0.0000
Fe101  Fe  1.0000  0.80738  0.75080  0.50166  0.0000
Fe102  Fe  1.0000  0.80738  0.91747  0.50166  0.0000
Fe103  Fe  1.0000  0.97405  0.08413  0.50166  0.0000
Fe104  Fe  1.0000  0.97405  0.25080  0.50166  0.0000
Fe105  Fe  1.0000  0.97405  0.41747  0.50166  0.0000
Fe106  Fe  1.0000  0.97405  0.58413  0.50166  0.0000
Fe107  Fe  1.0000  0.97405  0.75080  0.50166  0.0000
Fe108  Fe  1.0000  0.97405  0.91747  0.50166  0.0000
Ga1  Ga  1.0000  0.08524  0.13966  0.49796  0.0000
Ga2  Ga  1.0000  0.08524  0.30633  0.49796  0.0000
Ga3  Ga  1.0000  0.08524  0.47299  0.49796  0.0000
Ga4  Ga  1.0000  0.08524  0.63966  0.49796  0.0000
Ga5  Ga  1.0000  0.08524  0.80633  0.49796  0.0000
Ga6  Ga  1.0000  0.08524  0.97299  0.49796  0.0000
Ga7  Ga  1.0000  0.25190  0.13966  0.49796  0.0000
Ga8  Ga  1.0000  0.25190  0.30633  0.49796  0.0000
Ga9  Ga  1.0000  0.25190  0.47299  0.49796  0.0000
Ga10  Ga  1.0000  0.25190  0.63966  0.49796  0.0000
Ga11  Ga  1.0000  0.25190  0.80633  0.49796  0.0000
Ga12  Ga  1.0000  0.25190  0.97299  0.49796  0.0000
Ga13  Ga  1.0000  0.41857  0.13966  0.49796  0.0000
Ga14  Ga  1.0000  0.41857  0.30633  0.49796  0.0000
Ga15  Ga  1.0000  0.41857  0.47299  0.49796  0.0000
Ga16  Ga  1.0000  0.41857  0.63966  0.49796  0.0000
Ga17  Ga  1.0000  0.41857  0.80633  0.49796  0.0000
Ga18  Ga  1.0000  0.41857  0.97299  0.49796  0.0000
Ga19  Ga  1.0000  0.58524  0.13966  0.49796  0.0000
Ga20  Ga  1.0000  0.58524  0.30633  0.49796  0.0000
Ga21  Ga  1.0000  0.58524  0.47299  0.49796  0.0000
Ga22  Ga  1.0000  0.58524  0.63966  0.49796  0.0000
Ga23  Ga  1.0000  0.58524  0.80633  0.49796  0.0000
Ga24  Ga  1.0000  0.58524  0.97299  0.49796  0.0000
Ga25  Ga  1.0000  0.75190  0.13966  0.49796  0.0000
Ga26  Ga  1.0000  0.75190  0.30633  0.49796  0.0000
Ga27  Ga  1.0000  0.75190  0.47299  0.49796  0.0000
Ga28  Ga  1.0000  0.75190  0.63966  0.49796  0.0000
Ga29  Ga  1.0000  0.75190  0.80633  0.49796  0.0000
Ga30  Ga  1.0000  0.75190  0.97299  0.49796  0.0000
Ga31  Ga  1.0000  0.91857  0.13966  0.49796  0.0000
Ga32  Ga  1.0000  0.91857  0.30633  0.49796  0.0000
Ga33  Ga  1.0000  0.91857  0.47299  0.49796  0.0000
Ga34  Ga  1.0000  0.91857  0.63966  0.49796  0.0000
Ga35  Ga  1.0000  0.91857  0.80633  0.49796  0.0000
Ga36  Ga  1.0000  0.91857  0.97299  0.49796  0.0000
Te1  Te  1.0000  0.14087  0.08367  0.62630  0.0000
Te2  Te  1.0000  0.14087  0.25034  0.62630  0.0000
Te3  Te  1.0000  0.14087  0.41701  0.62630  0.0000
Te4  Te  1.0000  0.14087  0.58367  0.62630  0.0000
Te5  Te  1.0000  0.14087  0.75034  0.62630  0.0000
Te6  Te  1.0000  0.14087  0.91701  0.62630  0.0000
Te7  Te  1.0000  0.30754  0.08367  0.62630  0.0000
Te8  Te  1.0000  0.30754  0.25034  0.62630  0.0000
Te9  Te  1.0000  0.30754  0.41701  0.62630  0.0000
Te10  Te  1.0000  0.30754  0.58367  0.62630  0.0000
Te11  Te  1.0000  0.30754  0.75034  0.62630  0.0000
Te12  Te  1.0000  0.30754  0.91701  0.62630  0.0000
Te13  Te  1.0000  0.47420  0.08367  0.62630  0.0000
Te14  Te  1.0000  0.47420  0.25034  0.62630  0.0000
Te15  Te  1.0000  0.47420  0.41701  0.62630  0.0000
Te16  Te  1.0000  0.47420  0.58367  0.62630  0.0000
Te17  Te  1.0000  0.47420  0.75034  0.62630  0.0000
Te18  Te  1.0000  0.47420  0.91701  0.62630  0.0000
Te19  Te  1.0000  0.64087  0.08367  0.62630  0.0000
Te20  Te  1.0000  0.64087  0.25034  0.62630  0.0000
Te21  Te  1.0000  0.64087  0.41701  0.62630  0.0000
Te22  Te  1.0000  0.64087  0.58367  0.62630  0.0000
Te23  Te  1.0000  0.64087  0.75034  0.62630  0.0000
Te24  Te  1.0000  0.64087  0.91701  0.62630  0.0000
Te25  Te  1.0000  0.80754  0.08367  0.62630  0.0000
Te26  Te  1.0000  0.80754  0.25034  0.62630  0.0000
Te27  Te  1.0000  0.80754  0.41701  0.62630  0.0000
Te28  Te  1.0000  0.80754  0.58367  0.62630  0.0000
Te29  Te  1.0000  0.80754  0.75034  0.62630  0.0000
Te30  Te  1.0000  0.80754  0.91701  0.62630  0.0000
Te31  Te  1.0000  0.97420  0.08367  0.62630  0.0000
Te32  Te  1.0000  0.97420  0.25034  0.62630  0.0000
Te33  Te  1.0000  0.97420  0.41701  0.62630  0.0000
Te34  Te  1.0000  0.97420  0.58367  0.62630  0.0000
Te35  Te  1.0000  0.97420  0.75034  0.62630  0.0000
Te36  Te  1.0000  0.97420  0.91701  0.62630  0.0000
Te37  Te  1.0000  0.14080  0.08371  0.37519  0.0000
Te38  Te  1.0000  0.14080  0.25037  0.37519  0.0000
Te39  Te  1.0000  0.14080  0.41704  0.37519  0.0000
Te40  Te  1.0000  0.14080  0.58371  0.37519  0.0000
Te41  Te  1.0000  0.14080  0.75037  0.37519  0.0000
Te42  Te  1.0000  0.14080  0.91704  0.37519  0.0000
Te43  Te  1.0000  0.30747  0.08371  0.37519  0.0000
Te44  Te  1.0000  0.30747  0.25037  0.37519  0.0000
Te45  Te  1.0000  0.30747  0.41704  0.37519  0.0000
Te46  Te  1.0000  0.30747  0.58371  0.37519  0.0000
Te47  Te  1.0000  0.30747  0.75037  0.37519  0.0000
Te48  Te  1.0000  0.30747  0.91704  0.37519  0.0000
Te49  Te  1.0000  0.47414  0.08371  0.37519  0.0000
Te50  Te  1.0000  0.47414  0.25037  0.37519  0.0000
Te51  Te  1.0000  0.47414  0.41704  0.37519  0.0000
Te52  Te  1.0000  0.47414  0.58371  0.37519  0.0000
Te53  Te  1.0000  0.47414  0.75037  0.37519  0.0000
Te54  Te  1.0000  0.47414  0.91704  0.37519  0.0000
Te55  Te  1.0000  0.64080  0.08371  0.37519  0.0000
Te56  Te  1.0000  0.64080  0.25037  0.37519  0.0000
Te57  Te  1.0000  0.64080  0.41704  0.37519  0.0000
Te58  Te  1.0000  0.64080  0.58371  0.37519  0.0000
Te59  Te  1.0000  0.64080  0.75037  0.37519  0.0000
Te60  Te  1.0000  0.64080  0.91704  0.37519  0.0000
Te61  Te  1.0000  0.80747  0.08371  0.37519  0.0000
Te62  Te  1.0000  0.80747  0.25037  0.37519  0.0000
Te63  Te  1.0000  0.80747  0.41704  0.37519  0.0000
Te64  Te  1.0000  0.80747  0.58371  0.37519  0.0000
Te65  Te  1.0000  0.80747  0.75037  0.37519  0.0000
Te66  Te  1.0000  0.80747  0.91704  0.37519  0.0000
Te67  Te  1.0000  0.97414  0.08371  0.37519  0.0000
Te68  Te  1.0000  0.97414  0.25037  0.37519  0.0000
Te69  Te  1.0000  0.97414  0.41704  0.37519  0.0000
Te70  Te  1.0000  0.97414  0.58371  0.37519  0.0000
Te71  Te  1.0000  0.97414  0.75037  0.37519  0.0000
Te72  Te  1.0000  0.97414  0.91704  0.37519  0.0000
